225

C -7.0 -7.0 0
C -7.0 -6.0 0
C -7.0 -5.0 0
C -7.0 -4.0 0
C -7.0 -3.0 0
C -7.0 -2.0 0
C -7.0 -1.0 0
C -7.0 0.0 0
C -7.0 1.0 0
C -7.0 2.0 0
C -7.0 3.0 0
C -7.0 4.0 0
C -7.0 5.0 0
C -7.0 6.0 0
C -7.0 7.0 0
C -6.0 -7.0 0
C -6.0 -6.0 0
C -6.0 -5.0 0
C -6.0 -4.0 0
C -6.0 -3.0 0
C -6.0 -2.0 0
C -6.0 -1.0 0
C -6.0 0.0 0
C -6.0 1.0 0
C -6.0 2.0 0
C -6.0 3.0 0
C -6.0 4.0 0
C -6.0 5.0 0
C -6.0 6.0 0
C -6.0 7.0 0
C -5.0 -7.0 0
C -5.0 -6.0 0
C -5.0 -5.0 0
C -5.0 -4.0 0
C -5.0 -3.0 0
C -5.0 -2.0 0
C -5.0 -1.0 0
C -5.0 0.0 0
C -5.0 1.0 0
C -5.0 2.0 0
C -5.0 3.0 0
C -5.0 4.0 0
C -5.0 5.0 0
C -5.0 6.0 0
C -5.0 7.0 0
C -4.0 -7.0 0
C -4.0 -6.0 0
C -4.0 -5.0 0
C -4.0 -4.0 0
C -4.0 -3.0 0
C -4.0 -2.0 0
C -4.0 -1.0 0
C -4.0 0.0 0
C -4.0 1.0 0
C -4.0 2.0 0
C -4.0 3.0 0
C -4.0 4.0 0
C -4.0 5.0 0
C -4.0 6.0 0
C -4.0 7.0 0
C -3.0 -7.0 0
C -3.0 -6.0 0
C -3.0 -5.0 0
C -3.0 -4.0 0
C -3.0 -3.0 0
C -3.0 -2.0 0
C -3.0 -1.0 0
C -3.0 0.0 0
C -3.0 1.0 0
C -3.0 2.0 0
C -3.0 3.0 0
C -3.0 4.0 0
C -3.0 5.0 0
C -3.0 6.0 0
C -3.0 7.0 0
C -2.0 -7.0 0
C -2.0 -6.0 0
C -2.0 -5.0 0
C -2.0 -4.0 0
C -2.0 -3.0 0
C -2.0 -2.0 0
C -2.0 -1.0 0
C -2.0 0.0 0
C -2.0 1.0 0
C -2.0 2.0 0
C -2.0 3.0 0
C -2.0 4.0 0
C -2.0 5.0 0
C -2.0 6.0 0
C -2.0 7.0 0
C -1.0 -7.0 0
C -1.0 -6.0 0
C -1.0 -5.0 0
C -1.0 -4.0 0
C -1.0 -3.0 0
C -1.0 -2.0 0
C -1.0 -1.0 0
C -1.0 0.0 0
C -1.0 1.0 0
C -1.0 2.0 0
C -1.0 3.0 0
C -1.0 4.0 0
C -1.0 5.0 0
C -1.0 6.0 0
C -1.0 7.0 0
C 0.0 -7.0 0
C 0.0 -6.0 0
C 0.0 -5.0 0
C 0.0 -4.0 0
C 0.0 -3.0 0
C 0.0 -2.0 0
C 0.0 -1.0 0
C 0.0 0.0 0
C 0.0 1.0 0
C 0.0 2.0 0
C 0.0 3.0 0
C 0.0 4.0 0
C 0.0 5.0 0
C 0.0 6.0 0
C 0.0 7.0 0
C 1.0 -7.0 0
C 1.0 -6.0 0
C 1.0 -5.0 0
C 1.0 -4.0 0
C 1.0 -3.0 0
C 1.0 -2.0 0
C 1.0 -1.0 0
C 1.0 0.0 0
C 1.0 1.0 0
C 1.0 2.0 0
C 1.0 3.0 0
C 1.0 4.0 0
C 1.0 5.0 0
C 1.0 6.0 0
C 1.0 7.0 0
C 2.0 -7.0 0
C 2.0 -6.0 0
C 2.0 -5.0 0
C 2.0 -4.0 0
C 2.0 -3.0 0
C 2.0 -2.0 0
C 2.0 -1.0 0
C 2.0 0.0 0
C 2.0 1.0 0
C 2.0 2.0 0
C 2.0 3.0 0
C 2.0 4.0 0
C 2.0 5.0 0
C 2.0 6.0 0
C 2.0 7.0 0
C 3.0 -7.0 0
C 3.0 -6.0 0
C 3.0 -5.0 0
C 3.0 -4.0 0
C 3.0 -3.0 0
C 3.0 -2.0 0
C 3.0 -1.0 0
C 3.0 0.0 0
C 3.0 1.0 0
C 3.0 2.0 0
C 3.0 3.0 0
C 3.0 4.0 0
C 3.0 5.0 0
C 3.0 6.0 0
C 3.0 7.0 0
C 4.0 -7.0 0
C 4.0 -6.0 0
C 4.0 -5.0 0
C 4.0 -4.0 0
C 4.0 -3.0 0
C 4.0 -2.0 0
C 4.0 -1.0 0
C 4.0 0.0 0
C 4.0 1.0 0
C 4.0 2.0 0
C 4.0 3.0 0
C 4.0 4.0 0
C 4.0 5.0 0
C 4.0 6.0 0
C 4.0 7.0 0
C 5.0 -7.0 0
C 5.0 -6.0 0
C 5.0 -5.0 0
C 5.0 -4.0 0
C 5.0 -3.0 0
C 5.0 -2.0 0
C 5.0 -1.0 0
C 5.0 0.0 0
C 5.0 1.0 0
C 5.0 2.0 0
C 5.0 3.0 0
C 5.0 4.0 0
C 5.0 5.0 0
C 5.0 6.0 0
C 5.0 7.0 0
C 6.0 -7.0 0
C 6.0 -6.0 0
C 6.0 -5.0 0
C 6.0 -4.0 0
C 6.0 -3.0 0
C 6.0 -2.0 0
C 6.0 -1.0 0
C 6.0 0.0 0
C 6.0 1.0 0
C 6.0 2.0 0
C 6.0 3.0 0
C 6.0 4.0 0
C 6.0 5.0 0
C 6.0 6.0 0
C 6.0 7.0 0
C 7.0 -7.0 0
C 7.0 -6.0 0
C 7.0 -5.0 0
C 7.0 -4.0 0
C 7.0 -3.0 0
C 7.0 -2.0 0
C 7.0 -1.0 0
C 7.0 0.0 0
C 7.0 1.0 0
C 7.0 2.0 0
C 7.0 3.0 0
C 7.0 4.0 0
C 7.0 5.0 0
C 7.0 6.0 0
C 7.0 7.0 0
