192

C -9.84 -10.41 0
C -9.84 -12.87 0
C -8.61 -10.93 0
C -8.61 -12.35 0
C -9.84 -6.53 0
C -9.84 -8.99 0
C -8.61 -7.05 0
C -8.61 -8.47 0
C -9.84 -2.65 0
C -9.84 -5.11 0
C -8.61 -3.17 0
C -8.61 -4.59 0
C -9.84 1.23 0
C -9.84 -1.23 0
C -8.61 0.71 0
C -8.61 -0.71 0
C -9.84 5.11 0
C -9.84 2.65 0
C -8.61 4.59 0
C -8.61 3.17 0
C -9.84 8.99 0
C -9.84 6.53 0
C -8.61 8.47 0
C -8.61 7.05 0
C -7.38 -10.41 0
C -7.38 -12.87 0
C -6.15 -10.93 0
C -6.15 -12.35 0
C -7.38 -6.53 0
C -7.38 -8.99 0
C -6.15 -7.05 0
C -6.15 -8.47 0
C -7.38 -2.65 0
C -7.38 -5.11 0
C -6.15 -3.17 0
C -6.15 -4.59 0
C -7.38 1.23 0
C -7.38 -1.23 0
C -6.15 0.71 0
C -6.15 -0.71 0
C -7.38 5.11 0
C -7.38 2.65 0
C -6.15 4.59 0
C -6.15 3.17 0
C -7.38 8.99 0
C -7.38 6.53 0
C -6.15 8.47 0
C -6.15 7.05 0
C -4.92 -10.41 0
C -4.92 -12.87 0
C -3.69 -10.93 0
C -3.69 -12.35 0
C -4.92 -6.53 0
C -4.92 -8.99 0
C -3.69 -7.05 0
C -3.69 -8.47 0
C -4.92 -2.65 0
C -4.92 -5.11 0
C -3.69 -3.17 0
C -3.69 -4.59 0
C -4.92 1.23 0
C -4.92 -1.23 0
C -3.69 0.71 0
C -3.69 -0.71 0
C -4.92 5.11 0
C -4.92 2.65 0
C -3.69 4.59 0
C -3.69 3.17 0
C -4.92 8.99 0
C -4.92 6.53 0
C -3.69 8.47 0
C -3.69 7.05 0
C -2.46 -10.41 0
C -2.46 -12.87 0
C -1.23 -10.93 0
C -1.23 -12.35 0
C -2.46 -6.53 0
C -2.46 -8.99 0
C -1.23 -7.05 0
C -1.23 -8.47 0
C -2.46 -2.65 0
C -2.46 -5.11 0
C -1.23 -3.17 0
C -1.23 -4.59 0
C -2.46 1.23 0
C -2.46 -1.23 0
C -1.23 0.71 0
C -1.23 -0.71 0
C -2.46 5.11 0
C -2.46 2.65 0
C -1.23 4.59 0
C -1.23 3.17 0
C -2.46 8.99 0
C -2.46 6.53 0
C -1.23 8.47 0
C -1.23 7.05 0
C 0.0 -10.41 0
C 0.0 -12.87 0
C 1.23 -10.93 0
C 1.23 -12.35 0
C 0.0 -6.53 0
C 0.0 -8.99 0
C 1.23 -7.05 0
C 1.23 -8.47 0
C 0.0 -2.65 0
C 0.0 -5.11 0
C 1.23 -3.17 0
C 1.23 -4.59 0
C 0.0 1.23 0
C 0.0 -1.23 0
C 1.23 0.71 0
C 1.23 -0.71 0
C 0.0 5.11 0
C 0.0 2.65 0
C 1.23 4.59 0
C 1.23 3.17 0
C 0.0 8.99 0
C 0.0 6.53 0
C 1.23 8.47 0
C 1.23 7.05 0
C 2.46 -10.41 0
C 2.46 -12.87 0
C 3.69 -10.93 0
C 3.69 -12.35 0
C 2.46 -6.53 0
C 2.46 -8.99 0
C 3.69 -7.05 0
C 3.69 -8.47 0
C 2.46 -2.65 0
C 2.46 -5.11 0
C 3.69 -3.17 0
C 3.69 -4.59 0
C 2.46 1.23 0
C 2.46 -1.23 0
C 3.69 0.71 0
C 3.69 -0.71 0
C 2.46 5.11 0
C 2.46 2.65 0
C 3.69 4.59 0
C 3.69 3.17 0
C 2.46 8.99 0
C 2.46 6.53 0
C 3.69 8.47 0
C 3.69 7.05 0
C 4.92 -10.41 0
C 4.92 -12.87 0
C 6.15 -10.93 0
C 6.15 -12.35 0
C 4.92 -6.53 0
C 4.92 -8.99 0
C 6.15 -7.05 0
C 6.15 -8.47 0
C 4.92 -2.65 0
C 4.92 -5.11 0
C 6.15 -3.17 0
C 6.15 -4.59 0
C 4.92 1.23 0
C 4.92 -1.23 0
C 6.15 0.71 0
C 6.15 -0.71 0
C 4.92 5.11 0
C 4.92 2.65 0
C 6.15 4.59 0
C 6.15 3.17 0
C 4.92 8.99 0
C 4.92 6.53 0
C 6.15 8.47 0
C 6.15 7.05 0
C 7.38 -10.41 0
C 7.38 -12.87 0
C 8.61 -10.93 0
C 8.61 -12.35 0
C 7.38 -6.53 0
C 7.38 -8.99 0
C 8.61 -7.05 0
C 8.61 -8.47 0
C 7.38 -2.65 0
C 7.38 -5.11 0
C 8.61 -3.17 0
C 8.61 -4.59 0
C 7.38 1.23 0
C 7.38 -1.23 0
C 8.61 0.71 0
C 8.61 -0.71 0
C 7.38 5.11 0
C 7.38 2.65 0
C 8.61 4.59 0
C 8.61 3.17 0
C 7.38 8.99 0
C 7.38 6.53 0
C 8.61 8.47 0
