196

C -6.62874549799 -6.05913650717 0
C -6.22000725271 -5.24849753301 0
C -6.64468883486 -4.2056870255 0
C -6.93115192576 -3.16937339628 0
C -6.74202416335 -2.21604698639 0
C -6.60082510112 -1.29390225204 0
C -6.27558163966 -0.609902566168 0
C -6.08838011485 0.426989910865 0
C -6.28561606815 1.4690841441 0
C -6.58152978182 2.63922670886 0
C -6.61972854795 3.96003077647 0
C -6.43164546247 4.01685450964 0
C -6.93943485493 5.18294354759 0
C -6.47131244031 6.95358454558 0
C -5.59235729098 -6.20286468209 0
C -5.82485383615 -5.64432493897 0
C -5.99113711254 -4.23469278232 0
C -5.4427530314 -3.77888547247 0
C -5.39241736555 -2.25198887671 0
C -5.721176738 -1.52519981958 0
C -5.8319068194 -0.83486630943 0
C -5.23698892592 0.630609543416 0
C -5.08830364999 1.04166693306 0
C -5.48946255993 2.45650254747 0
C -5.33247773661 3.55737468693 0
C -5.38067262171 4.057462494 0
C -5.13920619695 5.28296553269 0
C -5.90676499009 6.34021709001 0
C -4.98090531443 -6.92200671701 0
C -4.7962381902 -5.38492988648 0
C -4.31822062108 -4.69357565653 0
C -4.09716879888 -3.16437979484 0
C -4.07565755227 -2.52132767426 0
C -4.67582965306 -1.8963844732 0
C -4.23201986536 -0.912812375758 0
C -4.46219248009 0.240010543703 0
C -4.07990978039 1.42721538645 0
C -4.36223577844 2.72308218441 0
C -4.43907474382 3.01287582662 0
C -4.27355379995 4.80064278872 0
C -4.62362549666 5.07976004222 0
C -4.11100059789 6.75766454738 0
C -3.91227108946 -6.91153532072 0
C -3.23913484118 -5.59999527453 0
C -3.83425477572 -4.82321531656 0
C -3.27312005529 -3.45642797353 0
C -3.10457260282 -2.00989913024 0
C -3.01198259876 -1.75585274811 0
C -3.3724276977 -0.0760726646007 0
C -3.42321452559 0.403960848975 0
C -3.79224422625 1.10055302618 0
C -3.42064663291 2.16567509009 0
C -3.54775540648 3.91646585452 0
C -3.80938789584 4.61643996482 0
C -3.19148753483 5.91250367944 0
C -3.57232084571 6.97417328152 0
C -2.88519482917 -6.69556287659 0
C -2.16512385377 -5.42722575175 0
C -2.83345554753 -4.19343900059 0
C -2.2784413071 -3.18025409755 0
C -2.86244951657 -2.62058424091 0
C -2.49181213172 -1.8157986829 0
C -2.60380199343 -0.837418713503 0
C -2.01844139614 0.486328377279 0
C -2.48043570625 1.50313173329 0
C -2.49369842558 2.984031526 0
C -2.69575665041 3.50384261377 0
C -2.02469144277 4.67794096191 0
C -2.87861182938 5.63631580407 0
C -2.87869299149 6.80602463136 0
C -1.31548136875 -6.64180167185 0
C -1.87415254006 -5.60714906436 0
C -1.99335336401 -4.87568437717 0
C -1.81115564725 -3.47143503752 0
C -1.37216571156 -2.60777260227 0
C -1.32733293346 -1.62805810049 0
C -1.5872233902 -0.501645013663 0
C -1.53141542694 0.333556373084 0
C -1.46024639597 1.17860482226 0
C -1.02339633185 2.58040127308 0
C -1.78159281259 3.87896135935 0
C -1.84282042238 4.76128980457 0
C -1.74522848111 5.98074025632 0
C -1.14831362315 6.24315760412 0
C -0.841151557648 -6.12784589427 0
C -0.150942343371 -5.91468026747 0
C -0.0605250495875 -4.15387042315 0
C -0.243957946013 -3.48421428237 0
C -0.156536113256 -2.3183909755 0
C -0.626040135366 -1.50100145246 0
C -0.193011317652 -0.702925989504 0
C -0.725462033816 0.747954377081 0
C -0.850639584545 1.46013864342 0
C -0.66730529111 2.12452047156 0
C -0.0688531861747 3.87200348477 0
C -0.792672249103 4.75600952756 0
C -0.386431022376 5.29739076943 0
C -0.0655902193074 6.1718390747 0
C 0.37739596162 -6.48728876615 0
C 0.671023112932 -5.3126073279 0
C 0.611123444486 -4.96660017684 0
C 0.109023812697 -3.98553090002 0
C 0.66471521026 -2.44059501724 0
C 0.412168894048 -1.37160668632 0
C 0.0444102382295 -0.21269643031 0
C 0.510881699145 0.376246797195 0
C 0.59420998081 1.9779748186 0
C 0.591097326039 2.15488594379 0
C 0.496820316544 3.11976829265 0
C 0.801950223181 4.24332943671 0
C 0.410895429054 5.88457708353 0
C 0.995908995679 6.16035770671 0
C 1.6406768628 -6.48964758736 0
C 1.31704709237 -5.38766908501 0
C 1.87208950497 -4.1960144096 0
C 1.80341007029 -3.78659704963 0
C 1.58587806688 -2.65474387381 0
C 1.75278048185 -1.70303121447 0
C 1.13670871237 -0.483063571227 0
C 1.82280059828 0.0179393796456 0
C 1.29910035219 1.45156539337 0
C 1.67542517674 2.22806069014 0
C 1.9103484196 3.11821728307 0
C 1.30816683438 4.16182738721 0
C 1.89652142814 5.82002128284 0
C 1.22684513321 6.85139822798 0
C 2.70980422081 -6.98877524202 0
C 2.38687878661 -5.46239879461 0
C 2.906670936 -4.6353833082 0
C 2.07329826435 -3.74540770597 0
C 2.24891928827 -2.59631552988 0
C 2.05048654505 -1.92503420129 0
C 2.91081713377 -0.243195833513 0
C 2.76734854212 0.762365477103 0
C 2.1223104489 1.73646338571 0
C 2.82860837462 2.61224526769 0
C 2.73904230955 3.73252039691 0
C 2.83622318081 4.73503771408 0
C 2.98155366496 5.15193848451 0
C 2.9069456022 6.14403742215 0
C 3.4552949231 -6.57779628508 0
C 3.1103178173 -5.95986920821 0
C 3.24096175613 -4.91400002488 0
C 3.49042284138 -3.7996772886 0
C 3.10223149844 -2.30282517409 0
C 3.06012276833 -1.97061921809 0
C 3.81656456827 -0.958220336377 0
C 3.6431745334 0.553015878579 0
C 3.89624329024 1.31178531894 0
C 3.87795122436 2.04572942914 0
C 3.12542373476 3.88204447474 0
C 3.04574450016 4.70618425166 0
C 3.71734223867 5.72160194008 0
C 3.69837781754 6.5261183633 0
C 4.34041610429 -6.32860435283 0
C 4.30278058917 -5.89454281049 0
C 4.00854990872 -4.17824146656 0
C 4.84856761094 -3.07143496716 0
C 4.0402630989 -2.77625869805 0
C 4.73776271319 -1.71660578908 0
C 4.03526702605 -0.772855625793 0
C 4.8953697474 0.879344696112 0
C 4.42246803527 1.63194264413 0
C 4.75851943329 2.13235256649 0
C 4.83489112758 3.67144274062 0
C 4.55085840363 4.79797936017 0
C 4.12379971132 5.18376456109 0
C 4.17544758059 6.90505405223 0
C 5.75037062673 -6.15658392072 0
C 5.52776583229 -5.72398851701 0
C 5.98499879072 -4.87834081259 0
C 5.10316200673 -3.30265804348 0
C 5.93691883354 -2.89241267935 0
C 5.86737895835 -1.62374119998 0
C 5.13648559355 -0.188234749846 0
C 5.27714971146 0.285903681826 0
C 5.10431355926 1.13234364368 0
C 5.48654770982 2.83475097663 0
C 5.93528670245 3.3630411805 0
C 5.63333150352 4.11208398843 0
C 5.36822244973 5.1683883519 0
C 5.18421660103 6.06425475348 0
C 6.39210080136 -6.57203980817 0
C 6.782227408 -5.86699672623 0
C 6.5006177472 -4.7794268642 0
C 6.91885592477 -3.88523302021 0
C 6.3685156016 -2.36405942668 0
C 6.23778608177 -1.87870369092 0
C 6.61540474711 -0.613612636408 0
C 6.33340217286 0.931957735203 0
C 6.48564736353 1.47066813824 0
C 6.12624751666 2.05891435204 0
C 6.68152747443 3.74465904701 0
C 6.36015707277 4.71467436439 0
C 6.73656246479 5.06754649214 0
C 6.53745661491 6.76968217085 0
